/*--------------------------------*- C++ -*----------------------------------*\
| =========                 |                                                 |
| \\      /  F ield         | OpenFOAM: The Open Source CFD Toolbox           |
|  \\    /   O peration     | Version:  4.0                                   |
|   \\  /    A nd           | Web:      www.OpenFOAM.org                      |
|    \\/     M anipulation  |                                                 |
\*---------------------------------------------------------------------------*/
FoamFile
{
    version     2.0;
    format      ascii;
    class       dictionary;
    object      setFieldsDict;
}
// * * * * * * * * * * * * * * * * * * * * * * * * * * * * * * * * * * * * * //

defaultFieldValues
(
    volScalarFieldValue alpha.water 0
    volVectorFieldValue U (0 0 0)
);

regions
(
    boxToCell
    {
        box (0 0 -1) (0.83 0.02 1);

        fieldValues
        (
            volScalarFieldValue alpha.water 1
            volVectorFieldValue U (1.74 0 0)
        );
    }

    boxToCell
    {
        box (0.83 0 -1) (1.5 0.1040 1);

        fieldValues
        (
            volScalarFieldValue alpha.water 1
        );
    }

);

// ************************************************************************* //`
