/*--------------------------------*- C++ -*----------------------------------*\
| =========                 |                                                 |
| \\      /  F ield         | OpenFOAM: The Open Source CFD Toolbox           |
|  \\    /   O peration     | Version:  4.0                                   |
|   \\  /    A nd           | Web:      www.OpenFOAM.org                      |
|    \\/     M anipulation  |                                                 |
\*---------------------------------------------------------------------------*/
FoamFile
{
    version     2.0;
    format      ascii;
    class       volScalarField;
    object      p_rgh;
}
// * * * * * * * * * * * * * * * * * * * * * * * * * * * * * * * * * * * * * //

dimensions      [1 -1 -2 0 0 0 0];

internalField   uniform 0;

boundaryField
{
    inlet_water
    {
        type            zeroGradient;

    }

    outlet_water
    {
        type            fixedMean;
        meanValue	    1834.47;
        value		    uniform 0;
    }

    outlet_air
    {
        type            totalPressure;
        p0              uniform 0;
    }

    walls
    {
        type            zeroGradient;
    }

    atmosphere
    {
        type            totalPressure;
        p0              uniform 0;
    }

    defaultFaces
    {
        type            empty;
    }
}
