/*--------------------------------*- C++ -*----------------------------------*\
| =========                 |                                                 |
| \\      /  F ield         | OpenFOAM: The Open Source CFD Toolbox           |
|  \\    /   O peration     | Version:  3.0.1                                 |
|   \\  /    A nd           | Web:      www.OpenFOAM.org                      |
|    \\/     M anipulation  |                                                 |
\*---------------------------------------------------------------------------*/
FoamFile
{
    version     2.0;
    format      ascii;
    class       volScalarField;
    location    "0";
    object      epsilon;
}
// * * * * * * * * * * * * * * * * * * * * * * * * * * * * * * * * * * * * * //

epsilonInlet 0.0454;

dimensions      [0 2 -3 0 0 0 0];

internalField   uniform $epsilonInlet;

boundaryField
{

    inlet_water
    {
        type            zeroGradient;
    }

    outlet_water
    {
        type            inletOutlet;
        inletValue      uniform $epsilonInlet;
        value           uniform $epsilonInlet;
    }

    outlet_air
    {
        type            inletOutlet;
        inletValue      uniform $epsilonInlet;
        value           uniform $epsilonInlet;
    }

    walls
    {
        type            epsilonWallFunction;
        value           uniform $epsilonInlet;
    }
    atmosphere
    {
        type            inletOutlet;
        inletValue      uniform $epsilonInlet;
        value           uniform $epsilonInlet;
    }
    defaultFaces
    {
        type            empty;
    }
}


// ************************************************************************* //
