/*--------------------------------*- C++ -*----------------------------------*\
| =========                 |                                                 |
| \\      /  F ield         | OpenFOAM: The Open Source CFD Toolbox           |
|  \\    /   O peration     | Version:  4.0                                   |
|   \\  /    A nd           | Web:      www.OpenFOAM.org                      |
|    \\/     M anipulation  |                                                 |
\*---------------------------------------------------------------------------*/
FoamFile
{
    version     2.0;
    format      ascii;
    class       volScalarField;
    object      omega;
}
// * * * * * * * * * * * * * * * * * * * * * * * * * * * * * * * * * * * * * //

omegaInlet      3.93;

dimensions      [0 0 -1 0 0 0 0];

internalField   uniform $omegaInlet;

boundaryField
{
    inlet_water
    {
        type            fixedValue;
        value           uniform $omegaInlet;
    }

    inlet_air
    {
        type            inletOutlet;
        inletValue      uniform $omegaInlet;
        value           uniform $omegaInlet;
    }

    outlet_water
    {
        type            inletOutlet;
        inletValue      uniform $omegaInlet;
        value           uniform $omegaInlet;
    }

    outlet_air
    {
        type            inletOutlet;
        inletValue      uniform $omegaInlet;
        value           uniform $omegaInlet;
    }

    walls
    {
        type            omegaWallFunction;
        value           uniform $omegaInlet;
    }

    atmosphere
    {
        type            inletOutlet;
        inletValue      uniform $omegaInlet;
        value           uniform $omegaInlet;
    }

    defaultFaces
    {
        type            slip;
    }

    #includeEtc "caseDicts/setConstraintTypes"
}

// ************************************************************************* //
/*

inletOutlet

Description
    This boundary condition provides a generic outflow condition, with
    specified inflow for the case of return flow.

Note
    The mode of operation is determined by the sign of the flux across the
    patch faces.
    Sign conventions:
    - Positive flux (out of domain): apply zero-gradient condition
    - Negative flux (into of domain): apply the "inletValue" fixed-value
*/
